LAMMPS (3 Mar 2020)
#Variables

variable Nequ		equal 	100
variable Nprod		equal 	10000#1.0e7
variable Nprint     equal   100

variable Nf 		equal 	10000/1000
variable Nr 		equal 	10		#take 10 saples
variable Ne 		equal 	10/10

# Initialization

units		lj
atom_style	atomic
pair_style	lj/cut 2.5
boundary	p p p

# System definition

#random init + minimize energy
# region            myreg block 0.0 10.0 0.0 10.0 0.0 10.0
# create_box        1 myreg
# create_atoms      1 random 1000 341341 myreg

#lattic init + equilibirum nve/nvt
# style: fcc or sc, scale=reduced density
## lattice fcc 0.2
lattice     sc 1.0
Lattice spacing in x,y,z = 1 1 1
variable side      equal 3.0
region      boxid block 0.0 3 0.0 3 0.0 3
create_box  1 boxid
Created orthogonal box = (0 0 0) to (3 3 3)
create_atoms 1 box
Created 27 atoms

# Simulation settings

mass 1 1.0
#  epsilon = 1.0, sigma = 1.0, cutoff = 2.5
pair_coeff        1 1 1.0 1.0 2.5
velocity all create 1.0 87287 dist gaussian

neighbor 0.3 bin
neigh_modify every 1 delay 0 check yes

# Run  Equilibrium

# for random init
# thermo		10
# minimize	1.0e-4 1.0e-6 1000 10000
# minimize 0.0 1.0e-8 1000 100000

# normalize thermo properties by number of atoms (yes or no)
reset_timestep 0
timestep	0.005

fix     NVE all nve
thermo 100
run		100
  update every 1 steps, delay 0 steps, check yes
Step Temp E_pair E_mol TotEng Press
0            1   -3.9823364            0    -2.537892    17.806247
Loop time of 0.00559022 on 8 procs for 100 steps with 27 atoms

unfix NVE

fix     NVT all nvt temp 1.0 1.0 0.1
thermo 100
run		100
Step Temp E_pair E_mol TotEng Press
100    1.6213413   -4.7477742            0   -2.4058368    14.475789
Loop time of 0.0043802 on 8 procs for 100 steps with 27 atoms

unfix NVT

# Run

reset_timestep 0
timestep	0.005

fix     NVT all nvt temp 1.0 1.0 0.1

compute        presstensor all pressure thermo_temp#NULL virial
variable       mypress equal (c_presstensor[1]+c_presstensor[2]+c_presstensor[3])/(3)

dump trj all custom 100 data/trj/LJ_test.trj id type x y z fx fy fz
dump_modify trj sort id

thermo_style custom step temp press v_mypress c_presstensor[*]
# thermo_style custom step etotal temp press density vol c_presstensor[*]
# normalize thermo properties by number of atoms (yes or no)
thermo_modify flush yes norm no

thermo 100
run 10000
Step Temp Press v_mypress c_presstensor[1] c_presstensor[2] c_presstensor[3] c_presstensor[4] c_presstensor[5] c_presstensor[6]
0   0.98452186    9.0613032    9.0613032    7.7018379    8.6355838    10.846488   -1.5992041   -1.0041915     1.123343
Averages over the last 51 of 101 rows, steps 5000 to 10000:
Temp Press v_mypress c_presstensor[1] c_presstensor[2] c_presstensor[3] c_presstensor[4] c_presstensor[5] c_presstensor[6]
0.991935 8.87955 8.87955 8.62713 9.07459 8.93693 0.668492 -0.083771 0.284305
Loop time of 0.48161 on 8 procs for 10000 steps with 27 atoms
